testcases/gridlabd/TMP0009/TMP0009_glmfile_loads.glm

object load {
	name N_1800039845;
	phases ABC;
	nominal_voltage 12597.206;
	constant_power_A_real load_shape_A*827.603333333;
	constant_power_B_real load_shape_B*827.603333333;
	constant_power_C_real load_shape_C*827.603333333;
	constant_power_A_reac load_shape_A*272.02006106;
	constant_power_B_reac load_shape_B*272.02006106;
	constant_power_C_reac load_shape_C*272.02006106;
}

object load {
	name N_1800070115;
	phases AB;
	nominal_voltage 12597.206;
	constant_power_A_real load_shape_A*1910.531;
	constant_power_B_real load_shape_B*1910.531;
	constant_power_C_real load_shape_C*0;
	constant_power_A_reac load_shape_A*627.961172151;
	constant_power_B_reac load_shape_B*627.961172151;
	constant_power_C_reac load_shape_C*0;
}

object load {
	name N_1800061775;
	phases A;
	nominal_voltage 12597.206;
	constant_power_A_real load_shape_A*20690.086;
	constant_power_B_real load_shape_B*0;
	constant_power_C_real load_shape_C*0;
	constant_power_A_reac load_shape_A*6800.50240298;
	constant_power_B_reac load_shape_B*0;
	constant_power_C_reac load_shape_C*0;
}

object load {
	name N_1800061774;
	phases A;
	nominal_voltage 12597.206;
	constant_power_A_real load_shape_A*32681.532;
	constant_power_B_real load_shape_B*0;
	constant_power_C_real load_shape_C*0;
	constant_power_A_reac load_shape_A*10741.9001013;
	constant_power_B_reac load_shape_B*0;
	constant_power_C_reac load_shape_C*0;
}

object load {
	name N_1800073031;
	phases AB;
	nominal_voltage 12597.206;
	constant_power_A_real load_shape_A*1140.156;
	constant_power_B_real load_shape_B*1140.156;
	constant_power_C_real load_shape_C*0;
	constant_power_A_reac load_shape_A*374.751154624;
	constant_power_B_reac load_shape_B*374.751154624;
	constant_power_C_reac load_shape_C*0;
}

object load {
	name N_1800073030;
	phases AB;
	nominal_voltage 12597.206;
	constant_power_A_real load_shape_A*2245.094;
	constant_power_B_real load_shape_B*2245.094;
	constant_power_C_real load_shape_C*0;
	constant_power_A_reac load_shape_A*737.926712432;
	constant_power_B_reac load_shape_B*737.926712432;
	constant_power_C_reac load_shape_C*0;
}

object load {
	name N_1800073032;
	phases AB;
	nominal_voltage 12597.206;
	constant_power_A_real load_shape_A*3983.942;
	constant_power_B_real load_shape_B*3983.942;
	constant_power_C_real load_shape_C*0;
	constant_power_A_reac load_shape_A*1309.45841135;
	constant_power_B_reac load_shape_B*1309.45841135;
	constant_power_C_reac load_shape_C*0;
}

object load {
	name N_1800190688;
	phases ABC;
	nominal_voltage 12597.206;
	constant_power_A_real load_shape_A*7281.14933333;
	constant_power_B_real load_shape_B*7281.14933333;
	constant_power_C_real load_shape_C*7281.14933333;
	constant_power_A_reac load_shape_A*4512.4510764;
	constant_power_B_reac load_shape_B*4512.4510764;
	constant_power_C_reac load_shape_C*4512.4510764;
}

object load {
	name N_1800073036;
	phases AB;
	nominal_voltage 12597.206;
	constant_power_A_real load_shape_A*3077.1;
	constant_power_B_real load_shape_B*3077.1;
	constant_power_C_real load_shape_C*0;
	constant_power_A_reac load_shape_A*1011.39386005;
	constant_power_B_reac load_shape_B*1011.39386005;
	constant_power_C_reac load_shape_C*0;
}

object load {
	name N_1800073039;
	phases AB;
	nominal_voltage 12597.206;
	constant_power_A_real load_shape_A*545.866;
	constant_power_B_real load_shape_B*545.866;
	constant_power_C_real load_shape_C*0;
	constant_power_A_reac load_shape_A*179.417477758;
	constant_power_B_reac load_shape_B*179.417477758;
	constant_power_C_reac load_shape_C*0;
}

object load {
	name N_1800061776;
	phases A;
	nominal_voltage 12597.206;
	constant_power_A_real load_shape_A*10098.523;
	constant_power_B_real load_shape_B*0;
	constant_power_C_real load_shape_C*0;
	constant_power_A_reac load_shape_A*3319.22399588;
	constant_power_B_reac load_shape_B*0;
	constant_power_C_reac load_shape_C*0;
}

object load {
	name N_1800204986;
	phases ABC;
	nominal_voltage 12597.206;
	constant_power_A_real load_shape_A*0.0;
	constant_power_B_real load_shape_B*0.0;
	constant_power_C_real load_shape_C*0.0;
	constant_power_A_reac load_shape_A*0.0;
	constant_power_B_reac load_shape_B*0.0;
	constant_power_C_reac load_shape_C*0.0;
}

object load {
	name N_1800046139;
	phases AB;
	nominal_voltage 12597.206;
	constant_power_A_real load_shape_A*444.617;
	constant_power_B_real load_shape_B*444.617;
	constant_power_C_real load_shape_C*0;
	constant_power_A_reac load_shape_A*146.138540792;
	constant_power_B_reac load_shape_B*146.138540792;
	constant_power_C_reac load_shape_C*0;
}

object load {
	name N_1800197008;
	phases ABC;
	nominal_voltage 12597.206;
	constant_power_A_real load_shape_A*2024.987;
	constant_power_B_real load_shape_B*2024.987;
	constant_power_C_real load_shape_C*2024.987;
	constant_power_A_reac load_shape_A*1254.97422859;
	constant_power_B_reac load_shape_B*1254.97422859;
	constant_power_C_reac load_shape_C*1254.97422859;
}

object load {
	name N_1800068607;
	phases ABC;
	nominal_voltage 12597.206;
	constant_power_A_real load_shape_A*5637.68166667;
	constant_power_B_real load_shape_B*5637.68166667;
	constant_power_C_real load_shape_C*5637.68166667;
	constant_power_A_reac load_shape_A*2673.89595516;
	constant_power_B_reac load_shape_B*2673.89595516;
	constant_power_C_reac load_shape_C*2673.89595516;
}

object load {
	name N_1800070709;
	phases ABC;
	nominal_voltage 12597.206;
	constant_power_A_real load_shape_A*572.279;
	constant_power_B_real load_shape_B*572.279;
	constant_power_C_real load_shape_C*572.279;
	constant_power_A_reac load_shape_A*205.182888437;
	constant_power_B_reac load_shape_B*205.182888437;
	constant_power_C_reac load_shape_C*205.182888437;
}

object load {
	name N_1800069146;
	phases AB;
	nominal_voltage 12597.206;
	constant_power_A_real load_shape_A*1197.384;
	constant_power_B_real load_shape_B*1197.384;
	constant_power_C_real load_shape_C*0;
	constant_power_A_reac load_shape_A*393.561088595;
	constant_power_B_reac load_shape_B*393.561088595;
	constant_power_C_reac load_shape_C*0;
}

object load {
	name N_1800031431;
	phases AB;
	nominal_voltage 12597.206;
	constant_power_A_real load_shape_A*1082.928;
	constant_power_B_real load_shape_B*1082.928;
	constant_power_C_real load_shape_C*0;
	constant_power_A_reac load_shape_A*408.474100027;
	constant_power_B_reac load_shape_B*408.474100027;
	constant_power_C_reac load_shape_C*0;
}

object load {
	name N_1800031430;
	phases ABC;
	nominal_voltage 12597.206;
	constant_power_A_real load_shape_A*6518.111;
	constant_power_B_real load_shape_B*6518.111;
	constant_power_C_real load_shape_C*6518.111;
	constant_power_A_reac load_shape_A*4039.56238933;
	constant_power_B_reac load_shape_B*4039.56238933;
	constant_power_C_reac load_shape_C*4039.56238933;
}

object load {
	name N_1800073729;
	phases ABC;
	nominal_voltage 12597.206;
	constant_power_A_real load_shape_A*1543.686;
	constant_power_B_real load_shape_B*1543.686;
	constant_power_C_real load_shape_C*1543.686;
	constant_power_A_reac load_shape_A*507.385051587;
	constant_power_B_reac load_shape_B*507.385051587;
	constant_power_C_reac load_shape_C*507.385051587;
}

object load {
	name N_1800069140;
	phases ABC;
	nominal_voltage 12597.206;
	constant_power_A_real load_shape_A*2312.594;
	constant_power_B_real load_shape_B*2312.594;
	constant_power_C_real load_shape_C*2312.594;
	constant_power_A_reac load_shape_A*760.112889532;
	constant_power_B_reac load_shape_B*760.112889532;
	constant_power_C_reac load_shape_C*760.112889532;
}

object load {
	name N_1800069141;
	phases ABC;
	nominal_voltage 12597.206;
	constant_power_A_real load_shape_A*1085.86266667;
	constant_power_B_real load_shape_B*1085.86266667;
	constant_power_C_real load_shape_C*1085.86266667;
	constant_power_A_reac load_shape_A*356.90579894;
	constant_power_B_reac load_shape_B*356.90579894;
	constant_power_C_reac load_shape_C*356.90579894;
}

object load {
	name N_1800069739;
	phases AB;
	nominal_voltage 12597.206;
	constant_power_A_real load_shape_A*338.965;
	constant_power_B_real load_shape_B*338.965;
	constant_power_C_real load_shape_C*0;
	constant_power_A_reac load_shape_A*111.412407712;
	constant_power_B_reac load_shape_B*111.412407712;
	constant_power_C_reac load_shape_C*0;
}

object load {
	name N_1800031438;
	phases AB;
	nominal_voltage 12597.206;
	constant_power_A_real load_shape_A*237.716;
	constant_power_B_real load_shape_B*237.716;
	constant_power_C_real load_shape_C*0;
	constant_power_A_reac load_shape_A*78.1334707467;
	constant_power_B_reac load_shape_B*78.1334707467;
	constant_power_C_reac load_shape_C*0;
}

object load {
	name N_1800028044;
	phases ABC;
	nominal_voltage 12597.206;
	constant_power_A_real load_shape_A*0.0;
	constant_power_B_real load_shape_B*0.0;
	constant_power_C_real load_shape_C*0.0;
	constant_power_A_reac load_shape_A*0.0;
	constant_power_B_reac load_shape_B*0.0;
	constant_power_C_reac load_shape_C*0.0;
}

object load {
	name N_1800028045;
	phases ABC;
	nominal_voltage 12597.206;
	constant_power_A_real load_shape_A*10603.3023333;
	constant_power_B_real load_shape_B*10603.3023333;
	constant_power_C_real load_shape_C*10603.3023333;
	constant_power_A_reac load_shape_A*6571.33658946;
	constant_power_B_reac load_shape_B*6571.33658946;
	constant_power_C_reac load_shape_C*6571.33658946;
}

object load {
	name N_1800069148;
	phases AB;
	nominal_voltage 12597.206;
	constant_power_A_real load_shape_A*0.0;
	constant_power_B_real load_shape_B*0.0;
	constant_power_C_real load_shape_C*0;
	constant_power_A_reac load_shape_A*0.0;
	constant_power_B_reac load_shape_B*0.0;
	constant_power_C_reac load_shape_C*0;
}

object load {
	name N_1800069149;
	phases AB;
	nominal_voltage 12597.206;
	constant_power_A_real load_shape_A*1113.743;
	constant_power_B_real load_shape_B*1113.743;
	constant_power_C_real load_shape_C*0;
	constant_power_A_reac load_shape_A*366.069621354;
	constant_power_B_reac load_shape_B*366.069621354;
	constant_power_C_reac load_shape_C*0;
}

object load {
	name N_1800003209;
	phases AB;
	nominal_voltage 12597.206;
	constant_power_A_real load_shape_A*880.429;
	constant_power_B_real load_shape_B*880.429;
	constant_power_C_real load_shape_C*0;
	constant_power_A_reac load_shape_A*289.383018039;
	constant_power_B_reac load_shape_B*289.383018039;
	constant_power_C_reac load_shape_C*0;
}

object load {
	name N_1800073482;
	phases AB;
	nominal_voltage 12597.206;
	constant_power_A_real load_shape_A*4287.69;
	constant_power_B_real load_shape_B*4287.69;
	constant_power_C_real load_shape_C*0;
	constant_power_A_reac load_shape_A*1409.29555093;
	constant_power_B_reac load_shape_B*1409.29555093;
	constant_power_C_reac load_shape_C*0;
}

object load {
	name N_1800003753;
	phases ABC;
	nominal_voltage 12597.206;
	constant_power_A_real load_shape_A*8.80433333333;
	constant_power_B_real load_shape_B*8.80433333333;
	constant_power_C_real load_shape_C*8.80433333333;
	constant_power_A_reac load_shape_A*5.45643573675;
	constant_power_B_reac load_shape_B*5.45643573675;
	constant_power_C_reac load_shape_C*5.45643573675;
}

object load {
	name N_1800068353;
	phases AB;
	nominal_voltage 12597.206;
	constant_power_A_real load_shape_A*1232.601;
	constant_power_B_real load_shape_B*1232.601;
	constant_power_C_real load_shape_C*0;
	constant_power_A_reac load_shape_A*405.136356728;
	constant_power_B_reac load_shape_B*405.136356728;
	constant_power_C_reac load_shape_C*0;
}

object load {
	name N_1800003205;
	phases ABC;
	nominal_voltage 12597.206;
	constant_power_A_real load_shape_A*399.128;
	constant_power_B_real load_shape_B*399.128;
	constant_power_C_real load_shape_C*399.128;
	constant_power_A_reac load_shape_A*131.187029532;
	constant_power_B_reac load_shape_B*131.187029532;
	constant_power_C_reac load_shape_C*131.187029532;
}

object load {
	name N_1800003756;
	phases ABC;
	nominal_voltage 12597.206;
	constant_power_A_real load_shape_A*1100.53633333;
	constant_power_B_real load_shape_B*1100.53633333;
	constant_power_C_real load_shape_C*1100.53633333;
	constant_power_A_reac load_shape_A*682.05116179;
	constant_power_B_reac load_shape_B*682.05116179;
	constant_power_C_reac load_shape_C*682.05116179;
}

object load {
	name N_1800003754;
	phases ABC;
	nominal_voltage 12597.206;
	constant_power_A_real load_shape_A*9904.82866667;
	constant_power_B_real load_shape_B*9904.82866667;
	constant_power_C_real load_shape_C*9904.82866667;
	constant_power_A_reac load_shape_A*5034.8440368;
	constant_power_B_reac load_shape_B*5034.8440368;
	constant_power_C_reac load_shape_C*5034.8440368;
}

object load {
	name N_1800206673;
	phases AB;
	nominal_voltage 12597.206;
	constant_power_A_real load_shape_A*1430.697;
	constant_power_B_real load_shape_B*1430.697;
	constant_power_C_real load_shape_C*0;
	constant_power_A_reac load_shape_A*470.247363227;
	constant_power_B_reac load_shape_B*470.247363227;
	constant_power_C_reac load_shape_C*0;
}

object load {
	name N_1800033792;
	phases AB;
	nominal_voltage 12597.206;
	constant_power_A_real load_shape_A*5366.216;
	constant_power_B_real load_shape_B*5366.216;
	constant_power_C_real load_shape_C*0;
	constant_power_A_reac load_shape_A*1763.78990416;
	constant_power_B_reac load_shape_B*1763.78990416;
	constant_power_C_reac load_shape_C*0;
}

object load {
	name N_1800024529;
	phases ABC;
	nominal_voltage 12597.206;
	constant_power_A_real load_shape_A*0.0;
	constant_power_B_real load_shape_B*0.0;
	constant_power_C_real load_shape_C*0.0;
	constant_power_A_reac load_shape_A*0.0;
	constant_power_B_reac load_shape_B*0.0;
	constant_power_C_reac load_shape_C*0.0;
}

object load {
	name N_1800002975;
	phases ABC;
	nominal_voltage 12597.206;
	constant_power_A_real load_shape_A*0.0;
	constant_power_B_real load_shape_B*0.0;
	constant_power_C_real load_shape_C*0.0;
	constant_power_A_reac load_shape_A*0.0;
	constant_power_B_reac load_shape_B*0.0;
	constant_power_C_reac load_shape_C*0.0;
}

object load {
	name N_1800002976;
	phases AB;
	nominal_voltage 12597.206;
	constant_power_A_real load_shape_A*11027.376;
	constant_power_B_real load_shape_B*11027.376;
	constant_power_C_real load_shape_C*0;
	constant_power_A_reac load_shape_A*3624.52321303;
	constant_power_B_reac load_shape_B*3624.52321303;
	constant_power_C_reac load_shape_C*0;
}

object load {
	name N_1800188899;
	phases ABC;
	nominal_voltage 12597.206;
	constant_power_A_real load_shape_A*13546.8706667;
	constant_power_B_real load_shape_B*13546.8706667;
	constant_power_C_real load_shape_C*13546.8706667;
	constant_power_A_reac load_shape_A*8395.59639875;
	constant_power_B_reac load_shape_B*8395.59639875;
	constant_power_C_reac load_shape_C*8395.59639875;
}

object load {
	name N_1800017243;
	phases AB;
	nominal_voltage 12597.206;
	constant_power_A_real load_shape_A*2650.092;
	constant_power_B_real load_shape_B*2650.092;
	constant_power_C_real load_shape_C*0;
	constant_power_A_reac load_shape_A*881.293385895;
	constant_power_B_reac load_shape_B*881.293385895;
	constant_power_C_reac load_shape_C*0;
}

object load {
	name N_1800188892;
	phases ABC;
	nominal_voltage 12597.206;
	constant_power_A_real load_shape_A*0.0;
	constant_power_B_real load_shape_B*0.0;
	constant_power_C_real load_shape_C*0.0;
	constant_power_A_reac load_shape_A*0.0;
	constant_power_B_reac load_shape_B*0.0;
	constant_power_C_reac load_shape_C*0.0;
}

object load {
	name N_1800027105;
	phases AB;
	nominal_voltage 12597.206;
	constant_power_A_real load_shape_A*1109.341;
	constant_power_B_real load_shape_B*1109.341;
	constant_power_C_real load_shape_C*0;
	constant_power_A_reac load_shape_A*364.622753923;
	constant_power_B_reac load_shape_B*364.622753923;
	constant_power_C_reac load_shape_C*0;
}

object load {
	name N_1800067826;
	phases ABC;
	nominal_voltage 12597.206;
	constant_power_A_real load_shape_A*657.387;
	constant_power_B_real load_shape_B*657.387;
	constant_power_C_real load_shape_C*657.387;
	constant_power_A_reac load_shape_A*407.41187139;
	constant_power_B_reac load_shape_B*407.41187139;
	constant_power_C_reac load_shape_C*407.41187139;
}

object load {
	name N_1800067825;
	phases ABC;
	nominal_voltage 12597.206;
	constant_power_A_real load_shape_A*114.455666667;
	constant_power_B_real load_shape_B*114.455666667;
	constant_power_C_real load_shape_C*114.455666667;
	constant_power_A_reac load_shape_A*70.9332514148;
	constant_power_B_reac load_shape_B*70.9332514148;
	constant_power_C_reac load_shape_C*70.9332514148;
}

object load {
	name N_1800068308;
	phases ABC;
	nominal_voltage 12597.206;
	constant_power_A_real load_shape_A*5499.74766667;
	constant_power_B_real load_shape_B*5499.74766667;
	constant_power_C_real load_shape_C*5499.74766667;
	constant_power_A_reac load_shape_A*3047.968015;
	constant_power_B_reac load_shape_B*3047.968015;
	constant_power_C_reac load_shape_C*3047.968015;
}

object load {
	name N_1800001908;
	phases AB;
	nominal_voltage 12597.206;
	constant_power_A_real load_shape_A*2055.802;
	constant_power_B_real load_shape_B*2055.802;
	constant_power_C_real load_shape_C*0;
	constant_power_A_reac load_shape_A*675.709440795;
	constant_power_B_reac load_shape_B*675.709440795;
	constant_power_C_reac load_shape_C*0;
}

object load {
	name N_1800068303;
	phases AB;
	nominal_voltage 12597.206;
	constant_power_A_real load_shape_A*3306.012;
	constant_power_B_real load_shape_B*3306.012;
	constant_power_C_real load_shape_C*0;
	constant_power_A_reac load_shape_A*1086.63359593;
	constant_power_B_reac load_shape_B*1086.63359593;
	constant_power_C_reac load_shape_C*0;
}

object load {
	name N_1800068302;
	phases AB;
	nominal_voltage 12597.206;
	constant_power_A_real load_shape_A*1135.754;
	constant_power_B_real load_shape_B*1135.754;
	constant_power_C_real load_shape_C*0;
	constant_power_A_reac load_shape_A*373.304287193;
	constant_power_B_reac load_shape_B*373.304287193;
	constant_power_C_reac load_shape_C*0;
}

object load {
	name N_1800068301;
	phases AB;
	nominal_voltage 12597.206;
	constant_power_A_real load_shape_A*4578.232;
	constant_power_B_real load_shape_B*4578.232;
	constant_power_C_real load_shape_C*0;
	constant_power_A_reac load_shape_A*1504.79208822;
	constant_power_B_reac load_shape_B*1504.79208822;
	constant_power_C_reac load_shape_C*0;
}

object load {
	name N_1800079742;
	phases AB;
	nominal_voltage 12597.206;
	constant_power_A_real load_shape_A*2654.494;
	constant_power_B_real load_shape_B*2654.494;
	constant_power_C_real load_shape_C*0;
	constant_power_A_reac load_shape_A*872.489985093;
	constant_power_B_reac load_shape_B*872.489985093;
	constant_power_C_reac load_shape_C*0;
}

object load {
	name N_1800045967;
	phases AC;
	nominal_voltage 12597.206;
	constant_power_A_real load_shape_A*739.561;
	constant_power_B_real load_shape_B*0;
	constant_power_C_real load_shape_C*739.561;
	constant_power_A_reac load_shape_A*243.08194551;
	constant_power_B_reac load_shape_B*0;
	constant_power_C_reac load_shape_C*243.08194551;
}

object load {
	name N_1800068305;
	phases AB;
	nominal_voltage 12597.206;
	constant_power_A_real load_shape_A*3235.577;
	constant_power_B_real load_shape_B*3235.577;
	constant_power_C_real load_shape_C*0;
	constant_power_A_reac load_shape_A*1063.48273098;
	constant_power_B_reac load_shape_B*1063.48273098;
	constant_power_C_reac load_shape_C*0;
}

object load {
	name N_1800067828;
	phases ABC;
	nominal_voltage 12597.206;
	constant_power_A_real load_shape_A*2655.96133333;
	constant_power_B_real load_shape_B*2655.96133333;
	constant_power_C_real load_shape_C*2655.96133333;
	constant_power_A_reac load_shape_A*872.972274236;
	constant_power_B_reac load_shape_B*872.972274236;
	constant_power_C_reac load_shape_C*872.972274236;
}

object load {
	name N_1800039533;
	phases ABC;
	nominal_voltage 12597.206;
	constant_power_A_real load_shape_A*1132.819;
	constant_power_B_real load_shape_B*1132.819;
	constant_power_C_real load_shape_C*1132.819;
	constant_power_A_reac load_shape_A*372.339599345;
	constant_power_B_reac load_shape_B*372.339599345;
	constant_power_C_reac load_shape_C*372.339599345;
}

object load {
	name N_1800039536;
	phases AB;
	nominal_voltage 12597.206;
	constant_power_A_real load_shape_A*3433.674;
	constant_power_B_real load_shape_B*3433.674;
	constant_power_C_real load_shape_C*0;
	constant_power_A_reac load_shape_A*1128.59406617;
	constant_power_B_reac load_shape_B*1128.59406617;
	constant_power_C_reac load_shape_C*0;
}

object load {
	name N_1800039537;
	phases ABC;
	nominal_voltage 12597.206;
	constant_power_A_real load_shape_A*1440.969;
	constant_power_B_real load_shape_B*1440.969;
	constant_power_C_real load_shape_C*1440.969;
	constant_power_A_reac load_shape_A*473.623606355;
	constant_power_B_reac load_shape_B*473.623606355;
	constant_power_C_reac load_shape_C*473.623606355;
}

object load {
	name N_1800039534;
	phases ABC;
	nominal_voltage 12597.206;
	constant_power_A_real load_shape_A*490.105666667;
	constant_power_B_real load_shape_B*490.105666667;
	constant_power_C_real load_shape_C*490.105666667;
	constant_power_A_reac load_shape_A*161.089942491;
	constant_power_B_reac load_shape_B*161.089942491;
	constant_power_C_reac load_shape_C*161.089942491;
}

object load {
	name N_1800069090;
	phases ABC;
	nominal_voltage 12597.206;
	constant_power_A_real load_shape_A*0.0;
	constant_power_B_real load_shape_B*0.0;
	constant_power_C_real load_shape_C*0.0;
	constant_power_A_reac load_shape_A*0.0;
	constant_power_B_reac load_shape_B*0.0;
	constant_power_C_reac load_shape_C*0.0;
}

object load {
	name N_1800069091;
	phases AB;
	nominal_voltage 12597.206;
	constant_power_A_real load_shape_A*550.268;
	constant_power_B_real load_shape_B*550.268;
	constant_power_C_real load_shape_C*0;
	constant_power_A_reac load_shape_A*180.864345189;
	constant_power_B_reac load_shape_B*180.864345189;
	constant_power_C_reac load_shape_C*0;
}

object load {
	name N_1800069540;
	phases AB;
	nominal_voltage 12597.206;
	constant_power_A_real load_shape_A*2429.985;
	constant_power_B_real load_shape_B*2429.985;
	constant_power_C_real load_shape_C*0;
	constant_power_A_reac load_shape_A*798.697445323;
	constant_power_B_reac load_shape_B*798.697445323;
	constant_power_C_reac load_shape_C*0;
}

object load {
	name N_1800070092;
	phases AB;
	nominal_voltage 12597.206;
	constant_power_A_real load_shape_A*2051.4;
	constant_power_B_real load_shape_B*2051.4;
	constant_power_C_real load_shape_C*0;
	constant_power_A_reac load_shape_A*674.262573364;
	constant_power_B_reac load_shape_B*674.262573364;
	constant_power_C_reac load_shape_C*0;
}

object load {
	name N_1800069095;
	phases ABC;
	nominal_voltage 12597.206;
	constant_power_A_real load_shape_A*70.4343333333;
	constant_power_B_real load_shape_B*70.4343333333;
	constant_power_C_real load_shape_C*70.4343333333;
	constant_power_A_reac load_shape_A*23.1506458255;
	constant_power_B_reac load_shape_B*23.1506458255;
	constant_power_C_reac load_shape_C*23.1506458255;
}

object load {
	name N_1800069096;
	phases ABC;
	nominal_voltage 12597.206;
	constant_power_A_real load_shape_A*1787.27133333;
	constant_power_B_real load_shape_B*1787.27133333;
	constant_power_C_real load_shape_C*1787.27133333;
	constant_power_A_reac load_shape_A*587.447678909;
	constant_power_B_reac load_shape_B*587.447678909;
	constant_power_C_reac load_shape_C*587.447678909;
}

object load {
	name N_1800069098;
	phases ABC;
	nominal_voltage 12597.206;
	constant_power_A_real load_shape_A*0.0;
	constant_power_B_real load_shape_B*0.0;
	constant_power_C_real load_shape_C*0.0;
	constant_power_A_reac load_shape_A*0.0;
	constant_power_B_reac load_shape_B*0.0;
	constant_power_C_reac load_shape_C*0.0;
}

object load {
	name N_1800069099;
	phases AB;
	nominal_voltage 12597.206;
	constant_power_A_real load_shape_A*1509.936;
	constant_power_B_real load_shape_B*1509.936;
	constant_power_C_real load_shape_C*0;
	constant_power_A_reac load_shape_A*651.328106867;
	constant_power_B_reac load_shape_B*651.328106867;
	constant_power_C_reac load_shape_C*0;
}

object load {
	name N_1800038121;
	phases ABC;
	nominal_voltage 12597.206;
	constant_power_A_real load_shape_A*639.778666667;
	constant_power_B_real load_shape_B*639.778666667;
	constant_power_C_real load_shape_C*639.778666667;
	constant_power_A_reac load_shape_A*210.285078566;
	constant_power_B_reac load_shape_B*210.285078566;
	constant_power_C_reac load_shape_C*210.285078566;
}

object load {
	name N_1800078085;
	phases AB;
	nominal_voltage 12597.206;
	constant_power_A_real load_shape_A*0.0;
	constant_power_B_real load_shape_B*0.0;
	constant_power_C_real load_shape_C*0;
	constant_power_A_reac load_shape_A*0.0;
	constant_power_B_reac load_shape_B*0.0;
	constant_power_C_reac load_shape_C*0;
}

object load {
	name N_1800044969;
	phases ABC;
	nominal_voltage 12597.206;
	constant_power_A_real load_shape_A*0.0;
	constant_power_B_real load_shape_B*0.0;
	constant_power_C_real load_shape_C*0.0;
	constant_power_A_reac load_shape_A*0.0;
	constant_power_B_reac load_shape_B*0.0;
	constant_power_C_reac load_shape_C*0.0;
}

object load {
	name N_1800044968;
	phases ABC;
	nominal_voltage 12597.206;
	constant_power_A_real load_shape_A*1895.85766667;
	constant_power_B_real load_shape_B*1895.85766667;
	constant_power_C_real load_shape_C*1895.85766667;
	constant_power_A_reac load_shape_A*924.668435629;
	constant_power_B_reac load_shape_B*924.668435629;
	constant_power_C_reac load_shape_C*924.668435629;
}

object load {
	name N_1800078460;
	phases AB;
	nominal_voltage 12597.206;
	constant_power_A_real load_shape_A*3473.293;
	constant_power_B_real load_shape_B*3473.293;
	constant_power_C_real load_shape_C*0;
	constant_power_A_reac load_shape_A*1141.61620173;
	constant_power_B_reac load_shape_B*1141.61620173;
	constant_power_C_reac load_shape_C*0;
}

object load {
	name N_1800044961;
	phases ABC;
	nominal_voltage 12597.206;
	constant_power_A_real load_shape_A*2805.63466667;
	constant_power_B_real load_shape_B*2805.63466667;
	constant_power_C_real load_shape_C*2805.63466667;
	constant_power_A_reac load_shape_A*1336.45120747;
	constant_power_B_reac load_shape_B*1336.45120747;
	constant_power_C_reac load_shape_C*1336.45120747;
}

object load {
	name N_1800044960;
	phases ABC;
	nominal_voltage 12597.206;
	constant_power_A_real load_shape_A*5109.424;
	constant_power_B_real load_shape_B*5109.424;
	constant_power_C_real load_shape_C*5109.424;
	constant_power_A_reac load_shape_A*3166.5365965;
	constant_power_B_reac load_shape_B*3166.5365965;
	constant_power_C_reac load_shape_C*3166.5365965;
}

object load {
	name N_1800067797;
	phases ABC;
	nominal_voltage 12597.206;
	constant_power_A_real load_shape_A*82.1733333333;
	constant_power_B_real load_shape_B*82.1733333333;
	constant_power_C_real load_shape_C*82.1733333333;
	constant_power_A_reac load_shape_A*50.926458101;
	constant_power_B_reac load_shape_B*50.926458101;
	constant_power_C_reac load_shape_C*50.926458101;
}

object load {
	name N_1800044962;
	phases ABC;
	nominal_voltage 12597.206;
	constant_power_A_real load_shape_A*4675.079;
	constant_power_B_real load_shape_B*4675.079;
	constant_power_C_real load_shape_C*4675.079;
	constant_power_A_reac load_shape_A*2897.35374184;
	constant_power_B_reac load_shape_B*2897.35374184;
	constant_power_C_reac load_shape_C*2897.35374184;
}

object load {
	name N_1800070670;
	phases AB;
	nominal_voltage 12597.206;
	constant_power_A_real load_shape_A*2377.159;
	constant_power_B_real load_shape_B*2377.159;
	constant_power_C_real load_shape_C*0;
	constant_power_A_reac load_shape_A*781.334378783;
	constant_power_B_reac load_shape_B*781.334378783;
	constant_power_C_reac load_shape_C*0;
}

object load {
	name N_1800067792;
	phases ABC;
	nominal_voltage 12597.206;
	constant_power_A_real load_shape_A*1552.49;
	constant_power_B_real load_shape_B*1552.49;
	constant_power_C_real load_shape_C*1552.49;
	constant_power_A_reac load_shape_A*510.278786449;
	constant_power_B_reac load_shape_B*510.278786449;
	constant_power_C_reac load_shape_C*510.278786449;
}

object load {
	name N_1800071075;
	phases AB;
	nominal_voltage 12597.206;
	constant_power_A_real load_shape_A*1025.7;
	constant_power_B_real load_shape_B*1025.7;
	constant_power_C_real load_shape_C*0;
	constant_power_A_reac load_shape_A*337.131286682;
	constant_power_B_reac load_shape_B*337.131286682;
	constant_power_C_reac load_shape_C*0;
}

object load {
	name N_1800071074;
	phases AB;
	nominal_voltage 12597.206;
	constant_power_A_real load_shape_A*1197.384;
	constant_power_B_real load_shape_B*1197.384;
	constant_power_C_real load_shape_C*0;
	constant_power_A_reac load_shape_A*394.842335742;
	constant_power_B_reac load_shape_B*394.842335742;
	constant_power_C_reac load_shape_C*0;
}

object load {
	name N_1800069898;
	phases AB;
	nominal_voltage 12597.206;
	constant_power_A_real load_shape_A*3279.599;
	constant_power_B_real load_shape_B*3279.599;
	constant_power_C_real load_shape_C*0;
	constant_power_A_reac load_shape_A*1077.95206266;
	constant_power_B_reac load_shape_B*1077.95206266;
	constant_power_C_reac load_shape_C*0;
}

object load {
	name N_1800068543;
	phases AB;
	nominal_voltage 12597.206;
	constant_power_A_real load_shape_A*2496.017;
	constant_power_B_real load_shape_B*2496.017;
	constant_power_C_real load_shape_C*0;
	constant_power_A_reac load_shape_A*1546.89240431;
	constant_power_B_reac load_shape_B*1546.89240431;
	constant_power_C_reac load_shape_C*0;
}

object load {
	name N_1800069891;
	phases AB;
	nominal_voltage 12597.206;
	constant_power_A_real load_shape_A*625.105;
	constant_power_B_real load_shape_B*625.105;
	constant_power_C_real load_shape_C*0;
	constant_power_A_reac load_shape_A*205.462077568;
	constant_power_B_reac load_shape_B*205.462077568;
	constant_power_C_reac load_shape_C*0;
}

object load {
	name N_1800069892;
	phases AB;
	nominal_voltage 12597.206;
	constant_power_A_real load_shape_A*1170.971;
	constant_power_B_real load_shape_B*1170.971;
	constant_power_C_real load_shape_C*0;
	constant_power_A_reac load_shape_A*384.879555325;
	constant_power_B_reac load_shape_B*384.879555325;
	constant_power_C_reac load_shape_C*0;
}

object load {
	name N_1800069893;
	phases AB;
	nominal_voltage 12597.206;
	constant_power_A_real load_shape_A*3213.567;
	constant_power_B_real load_shape_B*3213.567;
	constant_power_C_real load_shape_C*0;
	constant_power_A_reac load_shape_A*1056.24839383;
	constant_power_B_reac load_shape_B*1056.24839383;
	constant_power_C_reac load_shape_C*0;
}

object load {
	name N_1800069894;
	phases AB;
	nominal_voltage 12597.206;
	constant_power_A_real load_shape_A*5203.337;
	constant_power_B_real load_shape_B*5203.337;
	constant_power_C_real load_shape_C*0;
	constant_power_A_reac load_shape_A*1710.25416579;
	constant_power_B_reac load_shape_B*1710.25416579;
	constant_power_C_reac load_shape_C*0;
}

object load {
	name N_1800069895;
	phases AB;
	nominal_voltage 12597.206;
	constant_power_A_real load_shape_A*2597.266;
	constant_power_B_real load_shape_B*2597.266;
	constant_power_C_real load_shape_C*0;
	constant_power_A_reac load_shape_A*853.680051121;
	constant_power_B_reac load_shape_B*853.680051121;
	constant_power_C_reac load_shape_C*0;
}

object load {
	name N_1800069896;
	phases AB;
	nominal_voltage 12597.206;
	constant_power_A_real load_shape_A*1536.349;
	constant_power_B_real load_shape_B*1536.349;
	constant_power_C_real load_shape_C*0;
	constant_power_A_reac load_shape_A*556.225128535;
	constant_power_B_reac load_shape_B*556.225128535;
	constant_power_C_reac load_shape_C*0;
}

object load {
	name N_1800069897;
	phases AB;
	nominal_voltage 12597.206;
	constant_power_A_real load_shape_A*2385.963;
	constant_power_B_real load_shape_B*2385.963;
	constant_power_C_real load_shape_C*0;
	constant_power_A_reac load_shape_A*784.228113645;
	constant_power_B_reac load_shape_B*784.228113645;
	constant_power_C_reac load_shape_C*0;
}

object load {
	name N_1800073505;
	phases AB;
	nominal_voltage 12597.206;
	constant_power_A_real load_shape_A*2918.623;
	constant_power_B_real load_shape_B*2918.623;
	constant_power_C_real load_shape_C*0;
	constant_power_A_reac load_shape_A*959.304989109;
	constant_power_B_reac load_shape_B*959.304989109;
	constant_power_C_reac load_shape_C*0;
}

object load {
	name N_1800073504;
	phases AB;
	nominal_voltage 12597.206;
	constant_power_A_real load_shape_A*1162.167;
	constant_power_B_real load_shape_B*1162.167;
	constant_power_C_real load_shape_C*0;
	constant_power_A_reac load_shape_A*381.985820463;
	constant_power_B_reac load_shape_B*381.985820463;
	constant_power_C_reac load_shape_C*0;
}

object load {
	name N_1800073506;
	phases AB;
	nominal_voltage 12597.206;
	constant_power_A_real load_shape_A*493.04;
	constant_power_B_real load_shape_B*493.04;
	constant_power_C_real load_shape_C*0;
	constant_power_A_reac load_shape_A*162.054411217;
	constant_power_B_reac load_shape_B*162.054411217;
	constant_power_C_reac load_shape_C*0;
}

object load {
	name N_1800069411;
	phases AC;
	nominal_voltage 12597.206;
	constant_power_A_real load_shape_A*2016.183;
	constant_power_B_real load_shape_B*0;
	constant_power_C_real load_shape_C*2016.183;
	constant_power_A_reac load_shape_A*662.687305232;
	constant_power_B_reac load_shape_B*0;
	constant_power_C_reac load_shape_C*662.687305232;
}

object load {
	name N_1800073503;
	phases AB;
	nominal_voltage 12597.206;
	constant_power_A_real load_shape_A*4248.071;
	constant_power_B_real load_shape_B*4248.071;
	constant_power_C_real load_shape_C*0;
	constant_power_A_reac load_shape_A*1396.27341537;
	constant_power_B_reac load_shape_B*1396.27341537;
	constant_power_C_reac load_shape_C*0;
}

object load {
	name N_1800068584;
	phases AB;
	nominal_voltage 12597.206;
	constant_power_A_real load_shape_A*6453.546;
	constant_power_B_real load_shape_B*6453.546;
	constant_power_C_real load_shape_C*0;
	constant_power_A_reac load_shape_A*3999.54859612;
	constant_power_B_reac load_shape_B*3999.54859612;
	constant_power_C_reac load_shape_C*0;
}

object load {
	name N_1800038870;
	phases AB;
	nominal_voltage 12597.206;
	constant_power_A_real load_shape_A*3394.055;
	constant_power_B_real load_shape_B*3394.055;
	constant_power_C_real load_shape_C*0;
	constant_power_A_reac load_shape_A*1115.5719306;
	constant_power_B_reac load_shape_B*1115.5719306;
	constant_power_C_reac load_shape_C*0;
}

object load {
	name N_1800038871;
	phases AB;
	nominal_voltage 12597.206;
	constant_power_A_real load_shape_A*1430.697;
	constant_power_B_real load_shape_B*1430.697;
	constant_power_C_real load_shape_C*0;
	constant_power_A_reac load_shape_A*470.247363227;
	constant_power_B_reac load_shape_B*470.247363227;
	constant_power_C_reac load_shape_C*0;
}

object load {
	name N_1800038872;
	phases AB;
	nominal_voltage 12597.206;
	constant_power_A_real load_shape_A*1219.394;
	constant_power_B_real load_shape_B*1219.394;
	constant_power_C_real load_shape_C*0;
	constant_power_A_reac load_shape_A*409.764446837;
	constant_power_B_reac load_shape_B*409.764446837;
	constant_power_C_reac load_shape_C*0;
}

object load {
	name N_1800072928;
	phases ABC;
	nominal_voltage 12597.206;
	constant_power_A_real load_shape_A*2136.50833333;
	constant_power_B_real load_shape_B*2136.50833333;
	constant_power_C_real load_shape_C*2136.50833333;
	constant_power_A_reac load_shape_A*1324.08894353;
	constant_power_B_reac load_shape_B*1324.08894353;
	constant_power_C_reac load_shape_C*1324.08894353;
}

object load {
	name N_1800069117;
	phases AB;
	nominal_voltage 12597.206;
	constant_power_A_real load_shape_A*3143.132;
	constant_power_B_real load_shape_B*3143.132;
	constant_power_C_real load_shape_C*0;
	constant_power_A_reac load_shape_A*1033.09752888;
	constant_power_B_reac load_shape_B*1033.09752888;
	constant_power_C_reac load_shape_C*0;
}

object load {
	name N_1800068854;
	phases AC;
	nominal_voltage 12597.206;
	constant_power_A_real load_shape_A*2896.612;
	constant_power_B_real load_shape_B*0;
	constant_power_C_real load_shape_C*2896.612;
	constant_power_A_reac load_shape_A*952.07032327;
	constant_power_B_reac load_shape_B*0;
	constant_power_C_reac load_shape_C*952.07032327;
}

object load {
	name N_1800070208;
	phases ABC;
	nominal_voltage 12597.206;
	constant_power_A_real load_shape_A*1851.836;
	constant_power_B_real load_shape_B*1851.836;
	constant_power_C_real load_shape_C*1851.836;
	constant_power_A_reac load_shape_A*608.669058598;
	constant_power_B_reac load_shape_B*608.669058598;
	constant_power_C_reac load_shape_C*608.669058598;
}

object load {
	name N_1800069859;
	phases AB;
	nominal_voltage 12597.206;
	constant_power_A_real load_shape_A*1426.295;
	constant_power_B_real load_shape_B*1426.295;
	constant_power_C_real load_shape_C*0;
	constant_power_A_reac load_shape_A*468.800495796;
	constant_power_B_reac load_shape_B*468.800495796;
	constant_power_C_reac load_shape_C*0;
}

object load {
	name N_1800039406;
	phases AB;
	nominal_voltage 12597.206;
	constant_power_A_real load_shape_A*1214.992;
	constant_power_B_real load_shape_B*1214.992;
	constant_power_C_real load_shape_C*0;
	constant_power_A_reac load_shape_A*399.348558319;
	constant_power_B_reac load_shape_B*399.348558319;
	constant_power_C_reac load_shape_C*0;
}

object load {
	name N_1800069913;
	phases ABC;
	nominal_voltage 12597.206;
	constant_power_A_real load_shape_A*52.8256666667;
	constant_power_B_real load_shape_B*52.8256666667;
	constant_power_C_real load_shape_C*52.8256666667;
	constant_power_A_reac load_shape_A*32.738407839;
	constant_power_B_reac load_shape_B*32.738407839;
	constant_power_C_reac load_shape_C*32.738407839;
}

object load {
	name N_1800069438;
	phases AC;
	nominal_voltage 12597.206;
	constant_power_A_real load_shape_A*664.724;
	constant_power_B_real load_shape_B*0;
	constant_power_C_real load_shape_C*664.724;
	constant_power_A_reac load_shape_A*218.484213131;
	constant_power_B_reac load_shape_B*0;
	constant_power_C_reac load_shape_C*218.484213131;
}

object load {
	name N_1800069439;
	phases AC;
	nominal_voltage 12597.206;
	constant_power_A_real load_shape_A*876.027;
	constant_power_B_real load_shape_B*0;
	constant_power_C_real load_shape_C*876.027;
	constant_power_A_reac load_shape_A*287.936150608;
	constant_power_B_reac load_shape_B*0;
	constant_power_C_reac load_shape_C*287.936150608;
}

object load {
	name N_1800009268;
	phases ABC;
	nominal_voltage 12597.206;
	constant_power_A_real load_shape_A*842.277333333;
	constant_power_B_real load_shape_B*842.277333333;
	constant_power_C_real load_shape_C*842.277333333;
	constant_power_A_reac load_shape_A*276.843171619;
	constant_power_B_reac load_shape_B*276.843171619;
	constant_power_C_reac load_shape_C*276.843171619;
}

object load {
	name N_1800069433;
	phases AC;
	nominal_voltage 12597.206;
	constant_power_A_real load_shape_A*642.713;
	constant_power_B_real load_shape_B*0;
	constant_power_C_real load_shape_C*642.713;
	constant_power_A_reac load_shape_A*211.249547292;
	constant_power_B_reac load_shape_B*0;
	constant_power_C_reac load_shape_C*211.249547292;
}

object load {
	name N_1800069431;
	phases AC;
	nominal_voltage 12597.206;
	constant_power_A_real load_shape_A*1738.848;
	constant_power_B_real load_shape_B*0;
	constant_power_C_real load_shape_C*1738.848;
	constant_power_A_reac load_shape_A*571.531698922;
	constant_power_B_reac load_shape_B*0;
	constant_power_C_reac load_shape_C*571.531698922;
}

object load {
	name N_1800069436;
	phases AC;
	nominal_voltage 12597.206;
	constant_power_A_real load_shape_A*1122.547;
	constant_power_B_real load_shape_B*0;
	constant_power_C_real load_shape_C*1122.547;
	constant_power_A_reac load_shape_A*368.963356216;
	constant_power_B_reac load_shape_B*0;
	constant_power_C_reac load_shape_C*368.963356216;
}

object load {
	name N_1800068940;
	phases AB;
	nominal_voltage 12597.206;
	constant_power_A_real load_shape_A*1259.014;
	constant_power_B_real load_shape_B*1259.014;
	constant_power_C_real load_shape_C*0;
	constant_power_A_reac load_shape_A*413.817889998;
	constant_power_B_reac load_shape_B*413.817889998;
	constant_power_C_reac load_shape_C*0;
}

object load {
	name N_1800068943;
	phases AB;
	nominal_voltage 12597.206;
	constant_power_A_real load_shape_A*876.027;
	constant_power_B_real load_shape_B*876.027;
	constant_power_C_real load_shape_C*0;
	constant_power_A_reac load_shape_A*287.936150608;
	constant_power_B_reac load_shape_B*287.936150608;
	constant_power_C_reac load_shape_C*0;
}

object load {
	name N_1800018800;
	phases ABC;
	nominal_voltage 12597.206;
	constant_power_A_real load_shape_A*16000.0;
	constant_power_B_real load_shape_B*16000.0;
	constant_power_C_real load_shape_C*16000.0;
	constant_power_A_reac load_shape_A*9915.90941445;
	constant_power_B_reac load_shape_B*9915.90941445;
	constant_power_C_reac load_shape_C*9915.90941445;
}

object load {
	name N_1800012841;
	phases AB;
	nominal_voltage 12597.206;
	constant_power_A_real load_shape_A*708.746;
	constant_power_B_real load_shape_B*708.746;
	constant_power_C_real load_shape_C*0;
	constant_power_A_reac load_shape_A*232.953544809;
	constant_power_B_reac load_shape_B*232.953544809;
	constant_power_C_reac load_shape_C*0;
}

object load {
	name N_1800012842;
	phases AB;
	nominal_voltage 12597.206;
	constant_power_A_real load_shape_A*589.888;
	constant_power_B_real load_shape_B*589.888;
	constant_power_C_real load_shape_C*0;
	constant_power_A_reac load_shape_A*193.886809436;
	constant_power_B_reac load_shape_B*193.886809436;
	constant_power_C_reac load_shape_C*0;
}

object load {
	name N_1800012845;
	phases ABC;
	nominal_voltage 12597.206;
	constant_power_A_real load_shape_A*331.628333333;
	constant_power_B_real load_shape_B*331.628333333;
	constant_power_C_real load_shape_C*331.628333333;
	constant_power_A_reac load_shape_A*109.000961994;
	constant_power_B_reac load_shape_B*109.000961994;
	constant_power_C_reac load_shape_C*109.000961994;
}

object load {
	name N_1800012844;
	phases ABC;
	nominal_voltage 12597.206;
	constant_power_A_real load_shape_A*1625.85933333;
	constant_power_B_real load_shape_B*1625.85933333;
	constant_power_C_real load_shape_C*1625.85933333;
	constant_power_A_reac load_shape_A*534.394120123;
	constant_power_B_reac load_shape_B*534.394120123;
	constant_power_C_reac load_shape_C*534.394120123;
}

object load {
	name N_1800004242;
	phases ABC;
	nominal_voltage 12597.206;
	constant_power_A_real load_shape_A*0.0;
	constant_power_B_real load_shape_B*0.0;
	constant_power_C_real load_shape_C*0.0;
	constant_power_A_reac load_shape_A*0.0;
	constant_power_B_reac load_shape_B*0.0;
	constant_power_C_reac load_shape_C*0.0;
}

object load {
	name N_1800004243;
	phases ABC;
	nominal_voltage 12597.206;
	constant_power_A_real load_shape_A*3762.36733333;
	constant_power_B_real load_shape_B*3762.36733333;
	constant_power_C_real load_shape_C*3762.36733333;
	constant_power_A_reac load_shape_A*1236.63034031;
	constant_power_B_reac load_shape_B*1236.63034031;
	constant_power_C_reac load_shape_C*1236.63034031;
}

object load {
	name N_1800038904;
	phases AB;
	nominal_voltage 12597.206;
	constant_power_A_real load_shape_A*10934.931;
	constant_power_B_real load_shape_B*10934.931;
	constant_power_C_real load_shape_C*0;
	constant_power_A_reac load_shape_A*3594.13801093;
	constant_power_B_reac load_shape_B*3594.13801093;
	constant_power_C_reac load_shape_C*0;
}

object load {
	name N_1800038905;
	phases AB;
	nominal_voltage 12597.206;
	constant_power_A_real load_shape_A*1316.242;
	constant_power_B_real load_shape_B*1316.242;
	constant_power_C_real load_shape_C*0;
	constant_power_A_reac load_shape_A*432.627823969;
	constant_power_B_reac load_shape_B*432.627823969;
	constant_power_C_reac load_shape_C*0;
}

object load {
	name N_1800011389;
	phases AB;
	nominal_voltage 12597.206;
	constant_power_A_real load_shape_A*1104.939;
	constant_power_B_real load_shape_B*1104.939;
	constant_power_C_real load_shape_C*0;
	constant_power_A_reac load_shape_A*684.779689531;
	constant_power_B_reac load_shape_B*684.779689531;
	constant_power_C_reac load_shape_C*0;
}

object load {
	name N_1800208435;
	phases ABC;
	nominal_voltage 12597.206;
	constant_power_A_real load_shape_A*49.891;
	constant_power_B_real load_shape_B*49.891;
	constant_power_C_real load_shape_C*49.891;
	constant_power_A_reac load_shape_A*30.9196647873;
	constant_power_B_reac load_shape_B*30.9196647873;
	constant_power_C_reac load_shape_C*30.9196647873;
}

object load {
	name N_1800013717;
	phases AB;
	nominal_voltage 12597.206;
	constant_power_A_real load_shape_A*1650.805;
	constant_power_B_real load_shape_B*1650.805;
	constant_power_C_real load_shape_C*0;
	constant_power_A_reac load_shape_A*542.59336425;
	constant_power_B_reac load_shape_B*542.59336425;
	constant_power_C_reac load_shape_C*0;
}

object load {
	name N_1800071292;
	phases AB;
	nominal_voltage 12597.206;
	constant_power_A_real load_shape_A*1677.218;
	constant_power_B_real load_shape_B*1677.218;
	constant_power_C_real load_shape_C*0;
	constant_power_A_reac load_shape_A*551.27489752;
	constant_power_B_reac load_shape_B*551.27489752;
	constant_power_C_reac load_shape_C*0;
}

object load {
	name N_1800071290;
	phases AB;
	nominal_voltage 12597.206;
	constant_power_A_real load_shape_A*528.258;
	constant_power_B_real load_shape_B*528.258;
	constant_power_C_real load_shape_C*0;
	constant_power_A_reac load_shape_A*173.630008034;
	constant_power_B_reac load_shape_B*173.630008034;
	constant_power_C_reac load_shape_C*0;
}

object load {
	name N_1800036197;
	phases ABC;
	nominal_voltage 12597.206;
	constant_power_A_real load_shape_A*3733.01966667;
	constant_power_B_real load_shape_B*3733.01966667;
	constant_power_C_real load_shape_C*3733.01966667;
	constant_power_A_reac load_shape_A*2313.51780356;
	constant_power_B_reac load_shape_B*2313.51780356;
	constant_power_C_reac load_shape_C*2313.51780356;
}

object load {
	name N_1800029469;
	phases AB;
	nominal_voltage 12597.206;
	constant_power_A_real load_shape_A*818.799;
	constant_power_B_real load_shape_B*818.799;
	constant_power_C_real load_shape_C*0;
	constant_power_A_reac load_shape_A*269.126216636;
	constant_power_B_reac load_shape_B*269.126216636;
	constant_power_C_reac load_shape_C*0;
}

object load {
	name N_1800026112;
	phases AB;
	nominal_voltage 12597.206;
	constant_power_A_real load_shape_A*2654.494;
	constant_power_B_real load_shape_B*2654.494;
	constant_power_C_real load_shape_C*0;
	constant_power_A_reac load_shape_A*872.489985093;
	constant_power_B_reac load_shape_B*872.489985093;
	constant_power_C_reac load_shape_C*0;
}

object load {
	name N_1800068055;
	phases ABC;
	nominal_voltage 12597.206;
	constant_power_A_real load_shape_A*0.0;
	constant_power_B_real load_shape_B*0.0;
	constant_power_C_real load_shape_C*0.0;
	constant_power_A_reac load_shape_A*0.0;
	constant_power_B_reac load_shape_B*0.0;
	constant_power_C_reac load_shape_C*0.0;
}

object load {
	name N_1800068054;
	phases ABC;
	nominal_voltage 12597.206;
	constant_power_A_real load_shape_A*663.256666667;
	constant_power_B_real load_shape_B*663.256666667;
	constant_power_C_real load_shape_C*663.256666667;
	constant_power_A_reac load_shape_A*218.001923987;
	constant_power_B_reac load_shape_B*218.001923987;
	constant_power_C_reac load_shape_C*218.001923987;
}

object load {
	name N_1800068050;
	phases ABC;
	nominal_voltage 12597.206;
	constant_power_A_real load_shape_A*8431.577;
	constant_power_B_real load_shape_B*8431.577;
	constant_power_C_real load_shape_C*8431.577;
	constant_power_A_reac load_shape_A*5225.42210956;
	constant_power_B_reac load_shape_B*5225.42210956;
	constant_power_C_reac load_shape_C*5225.42210956;
}

object load {
	name N_1800020453;
	phases ABC;
	nominal_voltage 12597.206;
	constant_power_A_real load_shape_A*669.126333333;
	constant_power_B_real load_shape_B*669.126333333;
	constant_power_C_real load_shape_C*669.126333333;
	constant_power_A_reac load_shape_A*389.061440646;
	constant_power_B_reac load_shape_B*389.061440646;
	constant_power_C_reac load_shape_C*389.061440646;
}

object load {
	name N_1800004798;
	phases AB;
	nominal_voltage 12597.206;
	constant_power_A_real load_shape_A*206.901;
	constant_power_B_real load_shape_B*206.901;
	constant_power_C_real load_shape_C*0;
	constant_power_A_reac load_shape_A*128.22572336;
	constant_power_B_reac load_shape_B*128.22572336;
	constant_power_C_reac load_shape_C*0;
}

object load {
	name N_1800011630;
	phases ABC;
	nominal_voltage 12597.206;
	constant_power_A_real load_shape_A*1526.07733333;
	constant_power_B_real load_shape_B*1526.07733333;
	constant_power_C_real load_shape_C*1526.07733333;
	constant_power_A_reac load_shape_A*582.745731924;
	constant_power_B_reac load_shape_B*582.745731924;
	constant_power_C_reac load_shape_C*582.745731924;
}

object load {
	name N_1800039570;
	phases AB;
	nominal_voltage 12597.206;
	constant_power_A_real load_shape_A*1712.435;
	constant_power_B_real load_shape_B*1712.435;
	constant_power_C_real load_shape_C*0;
	constant_power_A_reac load_shape_A*562.850165652;
	constant_power_B_reac load_shape_B*562.850165652;
	constant_power_C_reac load_shape_C*0;
}

object load {
	name N_1800029468;
	phases AB;
	nominal_voltage 12597.206;
	constant_power_A_real load_shape_A*299.346;
	constant_power_B_real load_shape_B*299.346;
	constant_power_C_real load_shape_C*0;
	constant_power_A_reac load_shape_A*98.3902721489;
	constant_power_B_reac load_shape_B*98.3902721489;
	constant_power_C_reac load_shape_C*0;
}

object load {
	name N_1800022630;
	phases ABC;
	nominal_voltage 12597.206;
	constant_power_A_real load_shape_A*25244.84;
	constant_power_B_real load_shape_B*25244.84;
	constant_power_C_real load_shape_C*25244.84;
	constant_power_A_reac load_shape_A*15645.3466639;
	constant_power_B_reac load_shape_B*15645.3466639;
	constant_power_C_reac load_shape_C*15645.3466639;
}

object load {
	name N_1800010377;
	phases AB;
	nominal_voltage 12597.206;
	constant_power_A_real load_shape_A*1567.164;
	constant_power_B_real load_shape_B*1567.164;
	constant_power_C_real load_shape_C*0;
	constant_power_A_reac load_shape_A*515.101897009;
	constant_power_B_reac load_shape_B*515.101897009;
	constant_power_C_reac load_shape_C*0;
}

object load {
	name N_1800203030;
	phases AB;
	nominal_voltage 12597.206;
	constant_power_A_real load_shape_A*2060.204;
	constant_power_B_real load_shape_B*2060.204;
	constant_power_C_real load_shape_C*0;
	constant_power_A_reac load_shape_A*677.156308226;
	constant_power_B_reac load_shape_B*677.156308226;
	constant_power_C_reac load_shape_C*0;
}

object load {
	name N_1800077514;
	phases ABC;
	nominal_voltage 12597.206;
	constant_power_A_real load_shape_A*287.607;
	constant_power_B_real load_shape_B*287.607;
	constant_power_C_real load_shape_C*287.607;
	constant_power_A_reac load_shape_A*178.242809935;
	constant_power_B_reac load_shape_B*178.242809935;
	constant_power_C_reac load_shape_C*178.242809935;
}

object load {
	name N_1800195519;
	phases ABC;
	nominal_voltage 12597.206;
	constant_power_A_real load_shape_A*52.8256666667;
	constant_power_B_real load_shape_B*52.8256666667;
	constant_power_C_real load_shape_C*52.8256666667;
	constant_power_A_reac load_shape_A*32.738407839;
	constant_power_B_reac load_shape_B*32.738407839;
	constant_power_C_reac load_shape_C*32.738407839;
}

object load {
	name N_1800067493;
	phases AB;
	nominal_voltage 12597.206;
	constant_power_A_real load_shape_A*449.019;
	constant_power_B_real load_shape_B*449.019;
	constant_power_C_real load_shape_C*0;
	constant_power_A_reac load_shape_A*147.585408223;
	constant_power_B_reac load_shape_B*147.585408223;
	constant_power_C_reac load_shape_C*0;
}

object load {
	name N_1800067490;
	phases ABC;
	nominal_voltage 12597.206;
	constant_power_A_real load_shape_A*2.93466666667;
	constant_power_B_real load_shape_B*2.93466666667;
	constant_power_C_real load_shape_C*2.93466666667;
	constant_power_A_reac load_shape_A*0.964578287332;
	constant_power_B_reac load_shape_B*0.964578287332;
	constant_power_C_reac load_shape_C*0.964578287332;
}

object load {
	name N_1800067491;
	phases AB;
	nominal_voltage 12597.206;
	constant_power_A_real load_shape_A*30.815;
	constant_power_B_real load_shape_B*30.815;
	constant_power_C_real load_shape_C*0;
	constant_power_A_reac load_shape_A*10.1284007011;
	constant_power_B_reac load_shape_B*10.1284007011;
	constant_power_C_reac load_shape_C*0;
}

object load {
	name N_1800020529;
	phases ABC;
	nominal_voltage 12597.206;
	constant_power_A_real load_shape_A*1118.145;
	constant_power_B_real load_shape_B*1118.145;
	constant_power_C_real load_shape_C*1118.145;
	constant_power_A_reac load_shape_A*692.964033264;
	constant_power_B_reac load_shape_B*692.964033264;
	constant_power_C_reac load_shape_C*692.964033264;
}

object load {
	name N_1800037120;
	phases AB;
	nominal_voltage 12597.206;
	constant_power_A_real load_shape_A*3512.913;
	constant_power_B_real load_shape_B*3512.913;
	constant_power_C_real load_shape_C*0;
	constant_power_A_reac load_shape_A*1154.63866598;
	constant_power_B_reac load_shape_B*1154.63866598;
	constant_power_C_reac load_shape_C*0;
}

object load {
	name N_1800040457;
	phases ABC;
	nominal_voltage 12597.206;
	constant_power_A_real load_shape_A*1408.687;
	constant_power_B_real load_shape_B*1408.687;
	constant_power_C_real load_shape_C*1408.687;
	constant_power_A_reac load_shape_A*493.764024813;
	constant_power_B_reac load_shape_B*493.764024813;
	constant_power_C_reac load_shape_C*493.764024813;
}

object load {
	name N_1800073483;
	phases AB;
	nominal_voltage 12597.206;
	constant_power_A_real load_shape_A*4908.393;
	constant_power_B_real load_shape_B*4908.393;
	constant_power_C_real load_shape_C*0;
	constant_power_A_reac load_shape_A*1613.31076107;
	constant_power_B_reac load_shape_B*1613.31076107;
	constant_power_C_reac load_shape_C*0;
}

object load {
	name N_1800040451;
	phases ABC;
	nominal_voltage 12597.206;
	constant_power_A_real load_shape_A*1523.14266667;
	constant_power_B_real load_shape_B*1523.14266667;
	constant_power_C_real load_shape_C*1523.14266667;
	constant_power_A_reac load_shape_A*500.632784453;
	constant_power_B_reac load_shape_B*500.632784453;
	constant_power_C_reac load_shape_C*500.632784453;
}

object load {
	name N_1800040450;
	phases ABC;
	nominal_voltage 12597.206;
	constant_power_A_real load_shape_A*261.194;
	constant_power_B_real load_shape_B*261.194;
	constant_power_C_real load_shape_C*261.194;
	constant_power_A_reac load_shape_A*85.8503161681;
	constant_power_B_reac load_shape_B*85.8503161681;
	constant_power_C_reac load_shape_C*85.8503161681;
}

object load {
	name N_1800040452;
	phases ABC;
	nominal_voltage 12597.206;
	constant_power_A_real load_shape_A*1291.296;
	constant_power_B_real load_shape_B*1291.296;
	constant_power_C_real load_shape_C*1291.296;
	constant_power_A_reac load_shape_A*424.428470281;
	constant_power_B_reac load_shape_B*424.428470281;
	constant_power_C_reac load_shape_C*424.428470281;
}

object load {
	name N_1800004664;
	phases ABC;
	nominal_voltage 12597.206;
	constant_power_A_real load_shape_A*592.822333333;
	constant_power_B_real load_shape_B*592.822333333;
	constant_power_C_real load_shape_C*592.822333333;
	constant_power_A_reac load_shape_A*194.851278162;
	constant_power_B_reac load_shape_B*194.851278162;
	constant_power_C_reac load_shape_C*194.851278162;
}

object load {
	name N_1800068459;
	phases ABC;
	nominal_voltage 12597.206;
	constant_power_A_real load_shape_A*651.517666667;
	constant_power_B_real load_shape_B*651.517666667;
	constant_power_C_real load_shape_C*651.517666667;
	constant_power_A_reac load_shape_A*214.143501277;
	constant_power_B_reac load_shape_B*214.143501277;
	constant_power_C_reac load_shape_C*214.143501277;
}

object load {
	name N_1800037482;
	phases A;
	nominal_voltage 12597.206;
	constant_power_A_real load_shape_A*3363.24;
	constant_power_B_real load_shape_B*0;
	constant_power_C_real load_shape_C*0;
	constant_power_A_reac load_shape_A*1105.4435299;
	constant_power_B_reac load_shape_B*0;
	constant_power_C_reac load_shape_C*0;
}

object load {
	name N_1800035477;
	phases ABC;
	nominal_voltage 12597.206;
	constant_power_A_real load_shape_A*4833.55633333;
	constant_power_B_real load_shape_B*4833.55633333;
	constant_power_C_real load_shape_C*4833.55633333;
	constant_power_A_reac load_shape_A*1588.71313825;
	constant_power_B_reac load_shape_B*1588.71313825;
	constant_power_C_reac load_shape_C*1588.71313825;
}

object load {
	name N_1800045579;
	phases AB;
	nominal_voltage 12597.206;
	constant_power_A_real load_shape_A*3843.073;
	constant_power_B_real load_shape_B*3843.073;
	constant_power_C_real load_shape_C*0;
	constant_power_A_reac load_shape_A*1263.15701014;
	constant_power_B_reac load_shape_B*1263.15701014;
	constant_power_C_reac load_shape_C*0;
}

object load {
	name N_1800067455;
	phases AB;
	nominal_voltage 12597.206;
	constant_power_A_real load_shape_A*2641.288;
	constant_power_B_real load_shape_B*2641.288;
	constant_power_C_real load_shape_C*0;
	constant_power_A_reac load_shape_A*868.1493828;
	constant_power_B_reac load_shape_B*868.1493828;
	constant_power_C_reac load_shape_C*0;
}

object load {
	name N_1800037000;
	phases AB;
	nominal_voltage 12597.206;
	constant_power_A_real load_shape_A*1074.124;
	constant_power_B_real load_shape_B*1074.124;
	constant_power_C_real load_shape_C*0;
	constant_power_A_reac load_shape_A*353.047485791;
	constant_power_B_reac load_shape_B*353.047485791;
	constant_power_C_reac load_shape_C*0;
}

object load {
	name N_1800068557;
	phases AB;
	nominal_voltage 12597.206;
	constant_power_A_real load_shape_A*1281.024;
	constant_power_B_real load_shape_B*1281.024;
	constant_power_C_real load_shape_C*0;
	constant_power_A_reac load_shape_A*421.052227153;
	constant_power_B_reac load_shape_B*421.052227153;
	constant_power_C_reac load_shape_C*0;
}

object load {
	name N_1800069995;
	phases AB;
	nominal_voltage 12597.206;
	constant_power_A_real load_shape_A*1311.84;
	constant_power_B_real load_shape_B*1311.84;
	constant_power_C_real load_shape_C*0;
	constant_power_A_reac load_shape_A*431.180956538;
	constant_power_B_reac load_shape_B*431.180956538;
	constant_power_C_reac load_shape_C*0;
}

object load {
	name N_1800069142;
	phases ABC;
	nominal_voltage 12597.206;
	constant_power_A_real load_shape_A*355.106333333;
	constant_power_B_real load_shape_B*355.106333333;
	constant_power_C_real load_shape_C*355.106333333;
	constant_power_A_reac load_shape_A*220.075139614;
	constant_power_B_reac load_shape_B*220.075139614;
	constant_power_C_reac load_shape_C*220.075139614;
}

object load {
	name N_1800067986;
	phases ABC;
	nominal_voltage 12597.206;
	constant_power_A_real load_shape_A*848.146666667;
	constant_power_B_real load_shape_B*848.146666667;
	constant_power_C_real load_shape_C*848.146666667;
	constant_power_A_reac load_shape_A*278.772328194;
	constant_power_B_reac load_shape_B*278.772328194;
	constant_power_C_reac load_shape_C*278.772328194;
}

object load {
	name N_1800081435;
	phases AB;
	nominal_voltage 12597.206;
	constant_power_A_real load_shape_A*964.07;
	constant_power_B_real load_shape_B*964.07;
	constant_power_C_real load_shape_C*0;
	constant_power_A_reac load_shape_A*316.87448528;
	constant_power_B_reac load_shape_B*316.87448528;
	constant_power_C_reac load_shape_C*0;
}

object load {
	name N_1800070594;
	phases AB;
	nominal_voltage 12597.206;
	constant_power_A_real load_shape_A*691.137;
	constant_power_B_real load_shape_B*691.137;
	constant_power_C_real load_shape_C*0;
	constant_power_A_reac load_shape_A*227.165746401;
	constant_power_B_reac load_shape_B*227.165746401;
	constant_power_C_reac load_shape_C*0;
}

object load {
	name N_1800031434;
	phases AB;
	nominal_voltage 12597.206;
	constant_power_A_real load_shape_A*1509.936;
	constant_power_B_real load_shape_B*1509.936;
	constant_power_C_real load_shape_C*0;
	constant_power_A_reac load_shape_A*496.291963037;
	constant_power_B_reac load_shape_B*496.291963037;
	constant_power_C_reac load_shape_C*0;
}

object load {
	name N_1800038261;
	phases AB;
	nominal_voltage 12597.206;
	constant_power_A_real load_shape_A*2205.475;
	constant_power_B_real load_shape_B*2205.475;
	constant_power_C_real load_shape_C*0;
	constant_power_A_reac load_shape_A*724.904576869;
	constant_power_B_reac load_shape_B*724.904576869;
	constant_power_C_reac load_shape_C*0;
}

object load {
	name N_1800072249;
	phases ABC;
	nominal_voltage 12597.206;
	constant_power_A_real load_shape_A*0.0;
	constant_power_B_real load_shape_B*0.0;
...